/*--------------------------------*- C++ -*----------------------------------*\
| =========                 |                                                 |
| \\      /  F ield         | OpenFOAM: The Open Source CFD Toolbox           |
|  \\    /   O peration     | Version:  2.3.1                                 |
|   \\  /    A nd           | Web:      www.OpenFOAM.org                      |
|    \\/     M anipulation  |                                                 |
\*---------------------------------------------------------------------------*/


FoamFile
{
    version     2.0;
    format      ascii;
    class       dictionary;
    location    "system";
    object      controlDict;
}
// * * * * * * * * * * * * * * * * * * * * * * * * * * * * * * * * * * * * * //

libs (
       "libOpenFOAM.so"
       "libsimpleSwakFunctionObjects.so"
       "libswakFunctionObjects.so"
       "libgroovyBC.so"
     )

application     passiveScalarsimpleFoam;

startFrom       latestTime;

startTime       0;

stopAt          endTime;

endTime         20000;

deltaT          1;

writeControl    timeStep;

writeInterval   1;

purgeWrite      2;

writeFormat     ascii;

writePrecision  6;

writeCompression off;

timeFormat      general;

timePrecision   6;

runTimeModifiable true;





// ************************************************************************* //


