/*--------------------------------*- C++ -*----------------------------------*\
| =========                 |                                                 |
| \\      /  F ield         | OpenFOAM: The Open Source CFD Toolbox           |
|  \\    /   O peration     | Version:  2.3.1                                 |
|   \\  /    A nd           | Web:      www.OpenFOAM.org                      |
|    \\/     M anipulation  |                                                 |
\*---------------------------------------------------------------------------*/
FoamFile
{
    version     2.0;
    format      ascii;
    class       dictionary;
    object      topoSetDict;
}

// * * * * * * * * * * * * * * * * * * * * * * * * * * * * * * * * * * * * * //

actions 
(

    {
        name    TSsourceCells;
        type    cellSet;
        action  new;
        source  boxToCell;
        sourceInfo
        {
            box (1.08 0 0)(1.14 0.01 2); //创建体源的正确版本？
        }
    }
    /*{
        name    TSsourceCells;
        type    cellSet;
        action  add;
        source  boxToCell;
        sourceInfo
        {
            box (-0.01001 -100 -0.01001)(0.01001 0.00999 0.01001);
        }
    }*/
    {
        name    TSsourceCells;
        type    cellZoneSet;
        action  new;
        source  setToCellZone;
        sourceInfo
        {
            set TSsourceCells;           // name of cellSet
        }
    }

);

// ************************************************************************* //
