/*--------------------------------*- C++ -*----------------------------------*\
| =========                 |                                                 |
| \\      /  F ield         | OpenFOAM: The Open Source CFD Toolbox           |
|  \\    /   O peration     | Version:  2.3.1                                 |
|   \\  /    A nd           | Web:      www.OpenFOAM.org                      |
|    \\/     M anipulation  |                                                 |
\*---------------------------------------------------------------------------*/
FoamFile
{
    version     2.0;
    format      ascii;
    class       polyBoundaryMesh;
    location    "constant/polyMesh";
    object      boundary;
}
// * * * * * * * * * * * * * * * * * * * * * * * * * * * * * * * * * * * * * //

6
(
    INLET
    {
        type            patch;
        nFaces          59;
        startFace       28494;
    }
    OUTLET
    {
        type            patch;
        nFaces          59;
        startFace       28553;
    }
    FRONTANDBACK
    {
        type            wall;
        inGroups        1(wall);
        nFaces          28862;
        startFace       28612;
    }
    UPPERWALL
    {
        type            wall;
        inGroups        1(wall);
        nFaces          209;
        startFace       57474;
    }
    LOWERWALL
    {
        type            wall;
        inGroups        1(wall);
        nFaces          104;
        startFace       57683;
    }
    BUILDINGWALL
    {
        type            wall;
        inGroups        1(wall);
        nFaces          305;
        startFace       57787;
    }
)

// ************************************************************************* //
