/*--------------------------------*- C++ -*----------------------------------*\
| =========                 |                                                 |
| \\      /  F ield         | OpenFOAM: The Open Source CFD Toolbox           |
|  \\    /   O peration     | Version:  2.3.1                                 |
|   \\  /    A nd           | Web:      www.OpenFOAM.org                      |
|    \\/     M anipulation  |                                                 |
\*---------------------------------------------------------------------------*/
FoamFile
{
    version     2.0;
    format      ascii;
    class       volScalarField;
    location    "0";
    object      epsilon;
}
// * * * * * * * * * * * * * * * * * * * * * * * * * * * * * * * * * * * * * //

dimensions      [0 2 -3 0 0 0 0];

internalField   uniform 3;

boundaryField
{
    inlet
    {
        type            fixedValue;//groovyBC;
        variables "ee=pos().y>0 ? 0.09/pos().y : 3;";
        valueExpression      "ee";
        value           uniform 3;
    }
    outlet
    {
        type            zeroGradient;
    }
    buildingWall
    {
        type            epsilonWallFunction;
        value           uniform 3;
        Cmu             0.09;
        kappa           0.41;
        E               9.8;
    }
    lowerWall
    {
        type            epsilonWallFunction;
        value           uniform 3;
        Cmu             0.09;
        kappa           0.41;
        E               9.8;
    }
    frontAndBack
    {
        type            empty;
    }
    upperWall
    {
        type            symmetryPlane;
    }
}


// ************************************************************************* //
